<NUMBER OF ZONES> 38
<NUMBER OF NODES> 	416
<FIRST THRU NODE> 1
<NUMBER OF LINKS> 	914
<END OF METADATA>

  1		117 	 	7074.9000000000015 	1.1529198689124767 	0 0 0 0 0 0 ;
	2 	87 	 	9662.5000000000073 	1.3077728285644104 	0 0 0 0 0 0 ;
	3 	74 	 	7668.9999999999927 	1.1766938339006712 	0 0 0 0 0 0 ;
	4 	233 	 	12173.799999999996 	1.6380226412299237 	0 0 0 0 0 0 ;
	5 	165 	 	2586.7999999999956 	1.0915747901668154 	0 0 0 0 0 0 ;
	6 	213 	 	6576.5999999999913 	1.1370960748889003 	0 0 0 0 0 0 ;
	7 	253 	 	7137.1000000000204 	1.1551455588519783 	0 0 0 0 0 0 ;
	8 	411 	 	722.1000000000422 	1.0000479629182888 	0 0 0 0 0 0 ;
	9 	379 	 	1187.0329436508764 	1.0003502412611545 	0 0 0 0 0 0 ;
	9 	395 	 	1050.4670563491454 	1.0002148057823903 	0 0 0 0 0 0 ;
	10 	338 	 	69.200000000018917 	1.0000000040452055 	0 0 0 0 0 0 ;
	10 	362 	 	80.100000000013097 	1.0000000072618334 	0 0 0 0 0 0 ;
	11 	309 	 	485.80000000003929 	1.0000098253099972 	0 0 0 0 0 0 ;
	12 	275 	 	488.20000000001164 	1.0000100209136558 	0 0 0 0 0 0 ;
	13 	262 	 	37 	1.0000000003306155 	0 0 0 0 0 0 ;
	14 	257 	 	125.20000000004075 	1.0000000433444538 	0 0 0 0 0 0 ;
	15 	254 	 	407.10000000004948 	1.0000048452995249 	0 0 0 0 0 0 ;
	16 	263 	 	249 	1.0000006781310156 	0 0 0 0 0 0 ;
	17 	276 	 	648.30000000002474 	1.0000311616400124 	0 0 0 0 0 0 ;
	18 	322 	 	2185.8000000000175 	1.0040267800310838 	0 0 0 0 0 0 ;
	18 	348 	 	683.00000000000728 	1.0000383883136466 	0 0 0 0 0 0 ;
	19 	364 	 	746.90000000000873 	1.0000548992052627 	0 0 0 0 0 0 ;
	19 	380 	 	291.09999999999127 	1.0000012667328744 	0 0 0 0 0 0 ;
	20 	397 	 	503.60000000003492 	1.0000113464265341 	0 0 0 0 0 0 ;
	21 	412 	 	1396.5000000000073 	1.0006709342770499 	0 0 0 0 0 0 ;
	21 	413 	 	1245.3000000000247 	1.0004242405451269 	0 0 0 0 0 0 ;
	22 	414 	 	619.79999999999563 	1.0000260328974375 	0 0 0 0 0 0 ;
	22 	415 	 	904.6000000000131 	1.0001181251990681 	0 0 0 0 0 0 ;
	23 	416 	 	1522.5000000000073 	1.000947862681671 	0 0 0 0 0 0 ;
	24 	266 	 	203.10000000002037 	0.14906832450950355 	0 0 0 0 0 0 ;
	24 	267 	 	172.80000000001019 	0.14906832379098708 	0 0 0 0 0 0 ;
	25 	268 	 	4694.900000000016 	0.14949934538902687 	0 0 0 0 0 0 ;
	25 	269 	 	3859.3000000000247 	0.14926512458968666 	0 0 0 0 0 0 ;
	26 	273 	 	2660 	0.14911273711276107 	0 0 0 0 0 0 ;
	26 	274 	 	315 	0.14906833173447206 	0 0 0 0 0 0 ;
	27 	302 	 	314.20000000001892 	0.14906833164607838 	0 0 0 0 0 0 ;
	27 	303 	 	233.50000000000728 	0.14906832563719341 	0 0 0 0 0 0 ;
	28 	303 	 	1486.400000000016 	0.1490726534919031 	0 0 0 0 0 0 ;
	28 	304 	 	596.80000000000291 	0.14906843554072333 	0 0 0 0 0 0 ;
	29 	308 	 	718.30000000001019 	0.14906855916629155 	0 0 0 0 0 0 ;
	29 	337 	 	426.50000000000728 	0.14906835235422281 	0 0 0 0 0 0 ;
	30 	340 	 	1804.7000000000116 	0.14907773353940684 	0 0 0 0 0 0 ;
	30 	341 	 	1130.8000000000175 	0.14906977356650042 	0 0 0 0 0 0 ;
	31 	329 	 	1563.5000000000073 	0.14907362434400573 	0 0 0 0 0 0 ;
	31 	330 	 	2075.3000000000029 	0.14908477876166237 	0 0 0 0 0 0 ;
	32 	332 	 	1395.1999999999971 	0.14907168455572237 	0 0 0 0 0 0 ;
	32 	333 	 	662.70000000001164 	0.14906849410485268 	0 0 0 0 0 0 ;
	33 	337 	 	803.09999999999854 	0.14906869203958054 	0 0 0 0 0 0 ;
	33 	361 	 	980.09999999999854 	0.1490691416080312 	0 0 0 0 0 0 ;
	34 	369 	 	3909.6999999999971 	0.14927560814585769 	0 0 0 0 0 0 ;
	34 	385 	 	1412.5000000000146 	0.14907185441103918 	0 0 0 0 0 0 ;
	35 	373 	 	1529.1999999999971 	0.14907317422705557 	0 0 0 0 0 0 ;
	35 	389 	 	435.30000000000291 	0.14906835485290987 	0 0 0 0 0 0 ;
	36 	378 	 	615.60000000002037 	0.14906845040570899 	0 0 0 0 0 0 ;
	36 	394 	 	317.20000000001164 	0.14906833198105093 	0 0 0 0 0 0 ;
	37 	401 	 	222.90000000003056 	0.14906832518995261 	0 0 0 0 0 0 ;
	37 	402 	 	114.69999999999709 	0.1490683231535494 	0 0 0 0 0 0 ;
	38 	406 	 	350.10000000000582 	0.14906833632793567 	0 0 0 0 0 0 ;
	38 	407 	 	1161.6999999999825 	0.14906993873600075 	0 0 0 0 0 0 ;
	39 	266 	 	18.30000000000291 	1.4598484850288822 	0 0 0 0 0 0 ;
	39 	267 	 	24.19999999999709 	1.4598484850883253 	0 0 0 0 0 0 ;
	40 	268 	 	34.099999999998545 	1.320075758314871 	0 0 0 0 0 0 ;
	40 	269 	 	13.30000000000291 	1.3200757580072866 	0 0 0 0 0 0 ;
	41 	273 	 	342.5 	1.0000024274960007 	0 0 0 0 0 0 ;
	41 	274 	 	55.30000000000291 	1.0000000016497448 	0 0 0 0 0 0 ;
	42 	302 	 	387.80567665808485 	1.0000039899997415 	0 0 0 0 0 0 ;
	42 	303 	 	252.20000000001164 	1.0000007136685336 	0 0 0 0 0 0 ;
	43 	303 	 	5.6000000000058208 	1.5401515150002671 	0 0 0 0 0 0 ;
	43 	304 	 	12.099999999998545 	1.540151515005824 	0 0 0 0 0 0 ;
	44 	308 	 	229.20000000001164 	1.0000004868270183 	0 0 0 0 0 0 ;
	44 	337 	 	32.200000000004366 	3.0000000005689329 	0 0 0 0 0 0 ;
	45 	340 	 	0 	1 	0 0 0 0 0 0 ;
	45 	341 	 	0 	1 	0 0 0 0 0 0 ;
	46 	329 	 	320 	1.0000018497631911 	0 0 0 0 0 0 ;
	46 	330 	 	736.30000000000291 	1.0000518484074876 	0 0 0 0 0 0 ;
	47 	332 	 	143.10000000000582 	0.92007582606100258 	0 0 0 0 0 0 ;
	47 	333 	 	0 	0.94015151500000005 	0 0 0 0 0 0 ;
	48 	337 	 	107.20000000000437 	1.0000000232967512 	0 0 0 0 0 0 ;
	48 	361 	 	17.400000000001455 	1.0000000000161702 	0 0 0 0 0 0 ;
	49 	369 	 	81.80000000000291 	1.0000000078982239 	0 0 0 0 0 0 ;
	49 	385 	 	95.5 	1.0000000146733645 	0 0 0 0 0 0 ;
	50 	373 	 	288.60000000000582 	1.0000012237748588 	0 0 0 0 0 0 ;
	50 	389 	 	275 	1.0000010088973821 	0 0 0 0 0 0 ;
	51 	378 	 	20.80000000000291 	1.0000000000330194 	0 0 0 0 0 0 ;
	51 	394 	 	0 	1 	0 0 0 0 0 0 ;
	52 	401 	 	2771.5587485227734 	1.010409085472723 	0 0 0 0 0 0 ;
	52 	402 	 	956.13126642720454 	1.0001474301477873 	0 0 0 0 0 0 ;
	53 	406 	 	1892.6874961027133 	1.0823689396893252 	0 0 0 0 0 0 ;
	53 	407 	 	923.30000000000291 	1.0599843574308685 	0 0 0 0 0 0 ;
	54 	56 	 	1861.3000000000102 	0.33342480021914256 	0 0 0 0 0 0 ;
	54 	230 	 	481.70000000001892 	0.33333374330475629 	0 0 0 0 0 0 ;
	55 	59 	 	2691.3533459623068 	0.33373316987555529 	0 0 0 0 0 0 ;
	56 	102 	 	4415.8000000000102 	0.33623092708691049 	0 0 0 0 0 0 ;
	57 	54 	 	2343.0000000000291 	0.33356299498836356 	0 0 0 0 0 0 ;
	57 	235 	 	1287.7999999999956 	0.33335429311442305 	0 0 0 0 0 0 ;
	58 	137 	 	2256.7312664271958 	0.33353099325443764 	0 0 0 0 0 0 ;
	58 	145 	 	3788.2999999999956 	0.33490289119248484 	0 0 0 0 0 0 ;
	59 	146 	 	3371.2533459623228 	0.33431771922581027 	0 0 0 0 0 0 ;
	60 	102 	 	985.40000000000146 	0.33334051838756251 	0 0 0 0 0 0 ;
	60 	230 	 	2013.2000000000262 	0.33345851666235088 	0 0 0 0 0 0 ;
	61 	136 	 	3020.3022480553773 	0.33396749700765166 	0 0 0 0 0 0 ;
	62 	2 	 	13602.200000000026 	1.9438866766534952 	0 0 0 0 0 0 ;
	63 	62 	 	13602.200000000026 	3.1740234017048219 	0 0 0 0 0 0 ;
	64 	63 	 	6620.4551872567099 	0.60369368693684666 	0 0 0 0 0 0 ;
	64 	189 	 	162.10000000002765 	0.33333334584612306 	0 0 0 0 0 0 ;
	65 	64 	 	6782.5551872567376 	0.39025773239551548 	0 0 0 0 0 0 ;
	66 	65 	 	6782.5551872567376 	0.25609220432705448 	0 0 0 0 0 0 ;
	67 	66 	 	5550.2551872567346 	0.28705445680684949 	0 0 0 0 0 0 ;
	67 	260 	 	0 	0.5 	0 0 0 0 0 0 ;
	68 	67 	 	5550.2551872567346 	1.8486741950138019 	0 0 0 0 0 0 ;
	69 	68 	 	5445.1551872567143 	0.28599139835150678 	0 0 0 0 0 0 ;
	69 	258 	 	735.5 	0.50209074925754504 	0 0 0 0 0 0 ;
	70 	69 	 	6180.6551872567143 	1.5212239747925691 	0 0 0 0 0 0 ;
	71 	70 	 	6023.8551872566968 	0.29265050611252535 	0 0 0 0 0 0 ;
	71 	255 	 	2419.4471844827494 	0.74481376180053671 	0 0 0 0 0 0 ;
	72 	71 	 	8443.3023717394462 	0.34994671942431743 	0 0 0 0 0 0 ;
	73 	72 	 	2232.5 	0.4694645612389603 	0 0 0 0 0 0 ;
	73 	141 	 	5436.4999999999927 	0.34958573618522315 	0 0 0 0 0 0 ;
	74 	73 	 	7668.9999999999927 	1.3009940004528107 	0 0 0 0 0 0 ;
	75 	3 	 	5676.6000000000349 	1.1163455956739801 	0 0 0 0 0 0 ;
	76 	75 	 	5676.6000000000349 	1.1536594344696778 	0 0 0 0 0 0 ;
	77 	76 	 	1761.8000000000102 	0.46906664824255767 	0 0 0 0 0 0 ;
	77 	141 	 	3073.8920752866106 	0.33499442803212964 	0 0 0 0 0 0 ;
	78 	77 	 	4835.6920752866208 	0.28093503669764469 	0 0 0 0 0 0 ;
	79 	78 	 	4565.0920752865859 	0.27922320859419447 	0 0 0 0 0 0 ;
	79 	256 	 	1227.2000000000044 	0.51620438784917733 	0 0 0 0 0 0 ;
	80 	79 	 	5792.2920752865903 	1.495029164787792 	0 0 0 0 0 0 ;
	81 	80 	 	4571.2920752865757 	0.27925918314404952 	0 0 0 0 0 0 ;
	81 	259 	 	56.599999999998545 	0.50000007332244989 	0 0 0 0 0 0 ;
	82 	81 	 	4627.8920752865743 	1.8006304747669271 	0 0 0 0 0 0 ;
	83 	82 	 	4627.8920752865743 	0.279594427313473 	0 0 0 0 0 0 ;
	83 	261 	 	942.09999999999854 	0.50562806699028928 	0 0 0 0 0 0 ;
	84 	83 	 	5569.9920752865728 	0.24134272190080364 	0 0 0 0 0 0 ;
	85 	84 	 	5569.9920752865728 	0.36778106395962246 	0 0 0 0 0 0 ;
	86 	85 	 	4999.2920752865684 	0.56423890870097326 	0 0 0 0 0 0 ;
	86 	189 	 	4663.2079247134388 	0.34213123539610857 	0 0 0 0 0 0 ;
	87 	86 	 	9662.5000000000073 	1.62101107726858 	0 0 0 0 0 0 ;
	88 	1 	 	8328.0000000000146 	1.2103789311293136 	0 0 0 0 0 0 ;
	89 	88 	 	8328.0000000000146 	1.3832330073586763 	0 0 0 0 0 0 ;
	90 	89 	 	7777.3000000000175 	0.32828521225575702 	0 0 0 0 0 0 ;
	90 	293 	 	726.50000000004366 	0.50199027788569628 	0 0 0 0 0 0 ;
	91 	90 	 	8503.8000000000611 	0.29589047778580652 	0 0 0 0 0 0 ;
	92 	91 	 	8503.8000000000611 	0.40848360735324102 	0 0 0 0 0 0 ;
	93 	92 	 	4198.4469515390592 	0.35508242734843348 	0 0 0 0 0 0 ;
	93 	183 	 	1837.2000000000116 	0.3335452987856492 	0 0 0 0 0 0 ;
	93 	195 	 	684.24481274330174 	0.33333741136483036 	0 0 0 0 0 0 ;
	94 	93 	 	6719.8917642823726 	0.77728015714954257 	0 0 0 0 0 0 ;
	95 	94 	 	4821.7448127433308 	0.28083945913710362 	0 0 0 0 0 0 ;
	95 	290 	 	0 	0.5 	0 0 0 0 0 0 ;
	96 	95 	 	4821.7448127433308 	1.2805853821555078 	0 0 0 0 0 0 ;
	97 	96 	 	3992.4448127433207 	0.27648065988781378 	0 0 0 0 0 0 ;
	97 	288 	 	1925.0999999999985 	0.59812607306112942 	0 0 0 0 0 0 ;
	98 	97 	 	5917.5448127433192 	0.66419097472140431 	0 0 0 0 0 0 ;
	99 	98 	 	5917.5448127433192 	0.29127311831919267 	0 0 0 0 0 0 ;
	99 	283 	 	0 	0.5 	0 0 0 0 0 0 ;
	100 	99 	 	5917.5448127433192 	0.41947742274961575 	0 0 0 0 0 0 ;
	101 	100 	 	5401.2000000000116 	0.28556467229990495 	0 0 0 0 0 0 ;
	101 	278 	 	0 	0.5 	0 0 0 0 0 0 ;
	102 	101 	 	5401.2000000000116 	0.81104693699359087 	0 0 0 0 0 0 ;
	103 	59 	 	679.90000000001601 	0.33333496147138192 	0 0 0 0 0 0 ;
	103 	61 	 	3020.3022480553773 	0.33396749700765166 	0 0 0 0 0 0 ;
	103 	237 	 	2831.8000000000029 	0.33382339415112894 	0 0 0 0 0 0 ;
	104 	103 	 	6532.0022480553962 	0.85294191881907411 	0 0 0 0 0 0 ;
	105 	104 	 	6532.0022480553962 	0.30031563948850198 	0 0 0 0 0 0 ;
	105 	279 	 	287.80000000000291 	0.50004901560882309 	0 0 0 0 0 0 ;
	106 	105 	 	6819.8022480553991 	0.44000935053986029 	0 0 0 0 0 0 ;
	107 	106 	 	6284.5178918675301 	0.29635011667404854 	0 0 0 0 0 0 ;
	107 	284 	 	0 	0.5 	0 0 0 0 0 0 ;
	108 	107 	 	6284.5178918675301 	0.67576806946131562 	0 0 0 0 0 0 ;
	109 	108 	 	4138.7079247134607 	0.27707908814353999 	0 0 0 0 0 0 ;
	109 	289 	 	811.79999999999563 	0.50310289751007498 	0 0 0 0 0 0 ;
	110 	109 	 	4950.5079247134563 	1.2847548609183557 	0 0 0 0 0 0 ;
	111 	110 	 	4950.5079247134563 	0.28175384889741067 	0 0 0 0 0 0 ;
	111 	291 	 	187.80000000000291 	0.50000888696755652 	0 0 0 0 0 0 ;
	112 	111 	 	5138.3079247134592 	0.72500433719502377 	0 0 0 0 0 0 ;
	113 	112 	 	3492.6000000000276 	0.35192812926413225 	0 0 0 0 0 0 ;
	113 	183 	 	1668.2000000000044 	0.33347742255019197 	0 0 0 0 0 0 ;
	113 	195 	 	2688.2000000000044 	0.33430493035804237 	0 0 0 0 0 0 ;
	114 	113 	 	7849.0000000000364 	0.3831753346629872 	0 0 0 0 0 0 ;
	115 	114 	 	7849.0000000000364 	0.27755809733417941 	0 0 0 0 0 0 ;
	116 	115 	 	6819.4000000000015 	0.30552213642489345 	0 0 0 0 0 0 ;
	116 	294 	 	255.5 	0.50003044632373161 	0 0 0 0 0 0 ;
	117 	116 	 	7074.9000000000015 	1.2429520937433511 	0 0 0 0 0 0 ;
	118 	5 	 	4644.2000000000044 	1.1020562452704585 	0 0 0 0 0 0 ;
	119 	118 	 	4644.2000000000044 	1.1187733250860805 	0 0 0 0 0 0 ;
	120 	119 	 	3210.5000000000073 	0.27423121657239063 	0 0 0 0 0 0 ;
	120 	400 	 	3562.0312664272133 	1.6501703080343431 	0 0 0 0 0 0 ;
	121 	120 	 	6772.5312664272205 	0.60925349253781369 	0 0 0 0 0 0 ;
	122 	121 	 	6772.5312664272205 	0.69464129301774669 	0 0 0 0 0 0 ;
	123 	122 	 	6732.8312664272235 	0.30388271116994114 	0 0 0 0 0 0 ;
	123 	382 	 	0 	0.5 	0 0 0 0 0 0 ;
	124 	123 	 	6732.8312664272235 	0.96022332415629119 	0 0 0 0 0 0 ;
	125 	124 	 	6732.8312664272235 	0.30388271116994114 	0 0 0 0 0 0 ;
	125 	366 	 	885.80000000000291 	0.50439859470180248 	0 0 0 0 0 0 ;
	126 	125 	 	7618.6312664272264 	1.0234095166422341 	0 0 0 0 0 0 ;
	127 	126 	 	6981.3312664272235 	0.30876088489871034 	0 0 0 0 0 0 ;
	127 	350 	 	0 	0.5 	0 0 0 0 0 0 ;
	128 	127 	 	6981.3312664272235 	0.70406838186826526 	0 0 0 0 0 0 ;
	129 	128 	 	6981.3312664272235 	0.35811584421964215 	0 0 0 0 0 0 ;
	130 	129 	 	6155.4312664272293 	0.29445923545248087 	0 0 0 0 0 0 ;
	130 	324 	 	1491.8222969140552 	0.53538666367806831 	0 0 0 0 0 0 ;
	131 	130 	 	7647.2535633412845 	1.0258575573555504 	0 0 0 0 0 0 ;
	132 	131 	 	7310.2535633412772 	0.36659292173150093 	0 0 0 0 0 0 ;
	132 	314 	 	1008.2777030859652 	0.50738400354376889 	0 0 0 0 0 0 ;
	133 	132 	 	8318.5312664272424 	0.59411392944459251 	0 0 0 0 0 0 ;
	134 	133 	 	8318.5312664272424 	0.44231389537893923 	0 0 0 0 0 0 ;
	135 	134 	 	7965.8255897691488 	0.33388260636681449 	0 0 0 0 0 0 ;
	135 	298 	 	499.5 	0.50044474719042964 	0 0 0 0 0 0 ;
	136 	135 	 	8465.3255897691488 	0.1963706199395 	0 0 0 0 0 0 ;
	137 	136 	 	5445.0233417137715 	0.66341037532850855 	0 0 0 0 0 0 ;
	138 	60 	 	2998.6000000000276 	0.33394946549296017 	0 0 0 0 0 0 ;
	138 	137 	 	3188.2920752865757 	0.13169282232843094 	0 0 0 0 0 0 ;
	138 	236 	 	2512.0000000000073 	0.33363677696632316 	0 0 0 0 0 0 ;
	139 	138 	 	8698.8920752866106 	1.4389772651047352 	0 0 0 0 0 0 ;
	140 	139 	 	8436.692075286599 	0.3497048291955101 	0 0 0 0 0 0 ;
	140 	265 	 	73.700000000004366 	0.50000021078572432 	0 0 0 0 0 0 ;
	141 	140 	 	8510.3920752866034 	1.2124265832878689 	0 0 0 0 0 0 ;
	142 	72 	 	6210.8023717394462 	0.36101746165763038 	0 0 0 0 0 0 ;
	142 	76 	 	3914.8000000000247 	0.33770330180491326 	0 0 0 0 0 0 ;
	143 	142 	 	10125.602371739471 	1.4881000668517028 	0 0 0 0 0 0 ;
	144 	143 	 	10069.402371739474 	0.42904647924310524 	0 0 0 0 0 0 ;
	144 	264 	 	311.40000000003783 	0.500067180878075 	0 0 0 0 0 0 ;
	145 	144 	 	10380.802371739512 	1.4738848630468337 	0 0 0 0 0 0 ;
	146 	145 	 	6592.5023717395161 	0.13264241693966491 	0 0 0 0 0 0 ;
	147 	57 	 	3630.8000000000247 	0.33465770281339247 	0 0 0 0 0 0 ;
	147 	146 	 	3221.2490257771933 	0.76790833187562524 	0 0 0 0 0 0 ;
	148 	147 	 	6852.049025777218 	0.25721816501841382 	0 0 0 0 0 0 ;
	149 	148 	 	6335.4490257771977 	0.29712895173082582 	0 0 0 0 0 0 ;
	149 	297 	 	112.40000000001601 	0.5000011403455914 	0 0 0 0 0 0 ;
	150 	149 	 	6447.8490257772137 	0.38270239081641877 	0 0 0 0 0 0 ;
	151 	150 	 	6447.8490257772137 	0.25113429082830596 	0 0 0 0 0 0 ;
	152 	151 	 	5208.949025777205 	0.64718880235908738 	0 0 0 0 0 0 ;
	152 	310 	 	222.20000000001164 	0.50001741596171745 	0 0 0 0 0 0 ;
	153 	152 	 	5431.1490257772166 	0.7317436869031152 	0 0 0 0 0 0 ;
	154 	153 	 	3628.9490257771977 	0.27525358858379201 	0 0 0 0 0 0 ;
	154 	323 	 	334.69999999999709 	0.50008965904164038 	0 0 0 0 0 0 ;
	155 	154 	 	3963.6490257771948 	0.32054770187124798 	0 0 0 0 0 0 ;
	156 	155 	 	3963.6490257771948 	0.63020808883747803 	0 0 0 0 0 0 ;
	157 	156 	 	3963.6490257771948 	0.2763703245179846 	0 0 0 0 0 0 ;
	157 	349 	 	578.20000000001892 	0.50079851594433211 	0 0 0 0 0 0 ;
	158 	157 	 	4541.8490257772137 	0.88188098592840558 	0 0 0 0 0 0 ;
	159 	158 	 	3203.7000000000626 	0.27421756391107055 	0 0 0 0 0 0 ;
	159 	365 	 	0 	0.5 	0 0 0 0 0 0 ;
	160 	159 	 	3203.7000000000626 	0.866485953567384 	0 0 0 0 0 0 ;
	161 	160 	 	3203.7000000000626 	0.27421756391107055 	0 0 0 0 0 0 ;
	161 	381 	 	191.50000000001455 	0.50000960829561092 	0 0 0 0 0 0 ;
	162 	161 	 	3395.2000000000771 	0.62625462317579794 	0 0 0 0 0 0 ;
	163 	162 	 	3395.2000000000771 	0.54927315756055917 	0 0 0 0 0 0 ;
	164 	163 	 	1832.0999999999985 	0.27278606001051181 	0 0 0 0 0 0 ;
	164 	399 	 	754.69999999999709 	0.50231776095755432 	0 0 0 0 0 0 ;
	165 	164 	 	2586.7999999999956 	1.0931838350869516 	0 0 0 0 0 0 ;
	166 	6 	 	6522.2000000000189 	1.1355720176199173 	0 0 0 0 0 0 ;
	167 	166 	 	6522.2000000000189 	1.2005989411736266 	0 0 0 0 0 0 ;
	168 	167 	 	5835.9000000000233 	0.29026450315344071 	0 0 0 0 0 0 ;
	168 	409 	 	2133.5874961027585 	0.64805158902579008 	0 0 0 0 0 0 ;
	169 	168 	 	7969.4874961027817 	0.94859738306910257 	0 0 0 0 0 0 ;
	170 	169 	 	4449.1874961027497 	0.35666321924182476 	0 0 0 0 0 0 ;
	171 	170 	 	3488.3874961027395 	0.066009936310845146 	0 0 0 0 0 0 ;
	171 	216 	 	1695.4000000000087 	0.3334870524186927 	0 0 0 0 0 0 ;
	172 	171 	 	5183.7874961027483 	0.29498918440946992 	0 0 0 0 0 0 ;
	172 	393 	 	373.41250389728521 	0.50013890781137471 	0 0 0 0 0 0 ;
	173 	172 	 	5557.2000000000335 	0.5283569350795434 	0 0 0 0 0 0 ;
	174 	173 	 	5557.2000000000335 	0.24123007055763032 	0 0 0 0 0 0 ;
	175 	174 	 	5557.2000000000335 	0.28712686452191299 	0 0 0 0 0 0 ;
	175 	377 	 	870.00000000001455 	0.50409306134259291 	0 0 0 0 0 0 ;
	176 	175 	 	6427.200000000048 	0.89574054302549044 	0 0 0 0 0 0 ;
	177 	176 	 	5863.6000000000349 	0.29060199596927855 	0 0 0 0 0 0 ;
	177 	360 	 	0 	0.5 	0 0 0 0 0 0 ;
	178 	177 	 	5863.6000000000349 	0.8718059879078357 	0 0 0 0 0 0 ;
	179 	178 	 	5418.6000000000276 	0.28573235509104095 	0 0 0 0 0 0 ;
	179 	336 	 	852.10000000002037 	0.50376646125440738 	0 0 0 0 0 0 ;
	180 	179 	 	6270.700000000048 	2.0729943735525951 	0 0 0 0 0 0 ;
	181 	180 	 	6000.3000000000466 	0.29233895280250027 	0 0 0 0 0 0 ;
	181 	307 	 	756.69999999998981 	0.5023424276124121 	0 0 0 0 0 0 ;
	182 	181 	 	6757.0000000000364 	0.17038098728296991 	0 0 0 0 0 0 ;
	183 	182 	 	6757.0000000000364 	0.43828722198069148 	0 0 0 0 0 0 ;
	184 	92 	 	1559.153048460983 	0.33344328294359804 	0 0 0 0 0 0 ;
	184 	112 	 	1632.107924713433 	0.33346535171833491 	0 0 0 0 0 0 ;
	184 	183 	 	3251.6000000000204 	0.39505602807248136 	0 0 0 0 0 0 ;
	185 	184 	 	6442.8609731744364 	0.8127384298253798 	0 0 0 0 0 0 ;
	186 	185 	 	6442.8609731744364 	0.4303665053015493 	0 0 0 0 0 0 ;
	187 	186 	 	4630.9079247134578 	0.27961263917054502 	0 0 0 0 0 0 ;
	187 	272 	 	194.40000000000873 	0.50001020366719995 	0 0 0 0 0 0 ;
	188 	187 	 	4825.3079247134665 	0.92131836686925139 	0 0 0 0 0 0 ;
	189 	188 	 	4825.3079247134665 	0.79769574070905847 	0 0 0 0 0 0 ;
	190 	63 	 	6981.7448127433163 	0.37754082757253354 	0 0 0 0 0 0 ;
	190 	85 	 	570.70000000000437 	0.33333530665622335 	0 0 0 0 0 0 ;
	191 	190 	 	7552.4448127433207 	0.91487228716357849 	0 0 0 0 0 0 ;
	192 	191 	 	7552.4448127433207 	1.0566543087647118 	0 0 0 0 0 0 ;
	193 	192 	 	6804.1448127433177 	0.30522866292925377 	0 0 0 0 0 0 ;
	193 	271 	 	2664.1999999999971 	0.85994698390282964 	0 0 0 0 0 0 ;
	194 	193 	 	9468.3448127433148 	0.56872887126561922 	0 0 0 0 0 0 ;
	195 	194 	 	9468.3448127433148 	1.074032955945087 	0 0 0 0 0 0 ;
	196 	92 	 	2746.2000000000189 	0.33439153522272425 	0 0 0 0 0 0 ;
	196 	112 	 	13.599999999998545 	0.33333333300063656 	0 0 0 0 0 0 ;
	196 	195 	 	6095.9000000000087 	0.42286643189380807 	0 0 0 0 0 0 ;
	197 	196 	 	8855.7000000000262 	0.52738162402932098 	0 0 0 0 0 0 ;
	198 	197 	 	8855.7000000000262 	0.20501579163302716 	0 0 0 0 0 0 ;
	199 	198 	 	8481.5000000000218 	0.35135565083777559 	0 0 0 0 0 0 ;
	199 	306 	 	244.60000000000582 	0.50002557390536628 	0 0 0 0 0 0 ;
	200 	199 	 	8726.1000000000276 	2.5258766356875491 	0 0 0 0 0 0 ;
	201 	200 	 	7816.6000000000276 	0.3294190214307402 	0 0 0 0 0 0 ;
	201 	335 	 	836.60000000000582 	0.50349979562534442 	0 0 0 0 0 0 ;
	202 	201 	 	8653.2000000000335 	1.0737841458589035 	0 0 0 0 0 0 ;
	203 	202 	 	8653.2000000000335 	0.35792804861963445 	0 0 0 0 0 0 ;
	203 	359 	 	452.70000000000437 	0.50030006353475465 	0 0 0 0 0 0 ;
	204 	203 	 	9105.9000000000378 	1.1316946230429672 	0 0 0 0 0 0 ;
	205 	204 	 	7432.0000000000291 	0.3190376242215196 	0 0 0 0 0 0 ;
	205 	376 	 	0 	0.5 	0 0 0 0 0 0 ;
	206 	205 	 	7432.0000000000291 	0.26803994370099204 	0 0 0 0 0 0 ;
	207 	206 	 	7432.0000000000291 	0.58707756792251176 	0 0 0 0 0 0 ;
	208 	207 	 	6805.0000000000073 	0.3175011141767381 	0 0 0 0 0 0 ;
	209 	208 	 	3954.9999999999927 	0.066362905962072963 	0 0 0 0 0 0 ;
	209 	392 	 	647.64252276431944 	0.50125693455638909 	0 0 0 0 0 0 ;
	210 	209 	 	4602.6425227643122 	0.35777215984523736 	0 0 0 0 0 0 ;
	210 	250 	 	3293.4000000000087 	0.3355221927881098 	0 0 0 0 0 0 ;
	211 	210 	 	7896.0425227643209 	0.94225931246734229 	0 0 0 0 0 0 ;
	212 	211 	 	5499.5425227643063 	0.28653389897742793 	0 0 0 0 0 0 ;
	212 	408 	 	1077.0574772356849 	0.50961450131668373 	0 0 0 0 0 0 ;
	213 	212 	 	6576.5999999999913 	1.2043197841154794 	0 0 0 0 0 0 ;
	214 	7 	 	4983.6000000000204 	1.1058366016885117 	0 0 0 0 0 0 ;
	215 	214 	 	4983.6000000000204 	1.1058366016885117 	0 0 0 0 0 0 ;
	216 	215 	 	3779.7000000000189 	0.39443828678549808 	0 0 0 0 0 0 ;
	217 	169 	 	3520.300000000032 	0.33619065194498554 	0 0 0 0 0 0 ;
	217 	216 	 	2084.3000000000102 	0.58906033699004745 	0 0 0 0 0 0 ;
	218 	217 	 	5604.6000000000422 	0.28995705705130126 	0 0 0 0 0 0 ;
	218 	392 	 	469.80000000001746 	0.50034803529807503 	0 0 0 0 0 0 ;
	219 	218 	 	6074.4000000000597 	0.79836729711774768 	0 0 0 0 0 0 ;
	220 	219 	 	5393.5000000000582 	0.51135745902675567 	0 0 0 0 0 0 ;
	220 	363 	 	0 	0.5 	0 0 0 0 0 0 ;
	221 	220 	 	5393.5000000000582 	1.1894481855844252 	0 0 0 0 0 0 ;
	222 	221 	 	5393.5000000000582 	0.32230887964716037 	0 0 0 0 0 0 ;
	223 	222 	 	5210.2000000000626 	0.43240174887155886 	0 0 0 0 0 0 ;
	223 	346 	 	617.90000000000146 	0.50104146342789901 	0 0 0 0 0 0 ;
	224 	223 	 	5828.100000000064 	0.99606497450810683 	0 0 0 0 0 0 ;
	225 	224 	 	4465.4000000000451 	0.62729467701616748 	0 0 0 0 0 0 ;
	225 	330 	 	1387.400000000016 	0.52647146662593813 	0 0 0 0 0 0 ;
	226 	225 	 	5852.8000000000611 	0.96299514365152028 	0 0 0 0 0 0 ;
	227 	226 	 	5766.1000000000568 	0.40252854400591359 	0 0 0 0 0 0 ;
	227 	311 	 	144.66873357279837 	0.50000312946401215 	0 0 0 0 0 0 ;
	228 	227 	 	5910.7687335728551 	1.1208887875885627 	0 0 0 0 0 0 ;
	229 	228 	 	5840.8687335728464 	0.48128929550587407 	0 0 0 0 0 0 ;
	229 	277 	 	228.30000000000291 	0.50001940863036121 	0 0 0 0 0 0 ;
	230 	229 	 	6069.1687335728493 	0.12371385081910481 	0 0 0 0 0 0 ;
	231 	56 	 	2554.5 	0.33365783964487922 	0 0 0 0 0 0 ;
	231 	230 	 	3574.2687335728042 	0.29560531869064471 	0 0 0 0 0 0 ;
	232 	58 	 	6045.0312664271914 	0.3435097330652499 	0 0 0 0 0 0 ;
	232 	231 	 	6128.7687335728042 	0.32639081967654882 	0 0 0 0 0 0 ;
	233 	232 	 	12173.799999999996 	1.6380226412299237 	0 0 0 0 0 0 ;
	234 	4 	 	10223.900000000009 	1.3628519821272893 	0 0 0 0 0 0 ;
	235 	234 	 	10223.900000000009 	1.3628519821272893 	0 0 0 0 0 0 ;
	236 	235 	 	8936.1000000000131 	0.13748475322498668 	0 0 0 0 0 0 ;
	237 	236 	 	6424.1000000000058 	0.260485414995412 	0 0 0 0 0 0 ;
	238 	55 	 	2691.3533459623068 	0.33373316987555529 	0 0 0 0 0 0 ;
	238 	61 	 	0 	0.33333333300000001 	0 0 0 0 0 0 ;
	238 	237 	 	3592.3000000000029 	0.22990959179686957 	0 0 0 0 0 0 ;
	239 	238 	 	6283.6533459623097 	0.23720109660671287 	0 0 0 0 0 0 ;
	240 	239 	 	5567.4000000000306 	0.47911204357073722 	0 0 0 0 0 0 ;
	240 	299 	 	469.10000000002037 	0.5003459656450342 	0 0 0 0 0 0 ;
	241 	240 	 	6036.5000000000509 	0.96630568961560492 	0 0 0 0 0 0 ;
	242 	241 	 	5357.5000000000509 	0.63335272912980212 	0 0 0 0 0 0 ;
	242 	317 	 	411.20000000000437 	0.50020426015960784 	0 0 0 0 0 0 ;
	243 	242 	 	5768.7000000000553 	0.96157992598796294 	0 0 0 0 0 0 ;
	244 	243 	 	5402.4000000000524 	0.40025220618200752 	0 0 0 0 0 0 ;
	244 	339 	 	1872.6999999999898 	0.58787069976057182 	0 0 0 0 0 0 ;
	245 	244 	 	7275.1000000000422 	1.1139277201378215 	0 0 0 0 0 0 ;
	246 	245 	 	6033.2000000000335 	0.64047410081422163 	0 0 0 0 0 0 ;
	246 	347 	 	0 	0.5 	0 0 0 0 0 0 ;
	247 	246 	 	6033.2000000000335 	1.2022188267948455 	0 0 0 0 0 0 ;
	248 	247 	 	5541.6670563491571 	0.40107162043003908 	0 0 0 0 0 0 ;
	248 	374 	 	464.29999999999563 	0.50033202132443677 	0 0 0 0 0 0 ;
	249 	248 	 	6005.9670563491527 	0.92086068286670975 	0 0 0 0 0 0 ;
	250 	249 	 	5689.5000000000146 	0.36838737572538549 	0 0 0 0 0 0 ;
	251 	250 	 	2396.1000000000058 	0.054564012483863611 	0 0 0 0 0 0 ;
	251 	391 	 	1891 	0.59135605942901948 	0 0 0 0 0 0 ;
	252 	208 	 	2850.0000000000146 	0.33456082722680591 	0 0 0 0 0 0 ;
	252 	251 	 	4287.1000000000058 	0.52737910283975575 	0 0 0 0 0 0 ;
	253 	252 	 	7137.1000000000204 	1.1551455588519783 	0 0 0 0 0 0 ;
	254 	15 	 	3703.3000000000393 	1.033179649993472 	0 0 0 0 0 0 ;
	254 	255 	 	407.10000000004948 	2.0000096905990499 	0 0 0 0 0 0 ;
	255 	70 	 	156.80000000001746 	0.50000431872426077 	0 0 0 0 0 0 ;
	255 	254 	 	3703.3000000000393 	2.066359299986944 	0 0 0 0 0 0 ;
	255 	256 	 	250.30000000003201 	0.50000034620203992 	0 0 0 0 0 0 ;
	256 	78 	 	270.60000000003492 	0.50003830737666766 	0 0 0 0 0 0 ;
	256 	255 	 	1283.8528155172899 	0.50023963330387455 	0 0 0 0 0 0 ;
	256 	266 	 	9.5 	1.920075758002759 	0 0 0 0 0 0 ;
	257 	14 	 	37 	1.0000000003306155 	0 0 0 0 0 0 ;
	257 	258 	 	125.20000000004075 	2.0000000866889076 	0 0 0 0 0 0 ;
	258 	68 	 	105.10000000002037 	0.50000087173023067 	0 0 0 0 0 0 ;
	258 	257 	 	37 	2.0000000006612311 	0 0 0 0 0 0 ;
	258 	259 	 	793.90000000002328 	0.50003503881676004 	0 0 0 0 0 0 ;
	259 	80 	 	1221.0000000000146 	0.51587939305613506 	0 0 0 0 0 0 ;
	259 	258 	 	75.30000000000291 	0.5000000028357382 	0 0 0 0 0 0 ;
	259 	267 	 	799.30000000001019 	1.9202140107682832 	0 0 0 0 0 0 ;
	260 	66 	 	1232.3000000000029 	0.51647544057024208 	0 0 0 0 0 0 ;
	260 	261 	 	0 	0.5 	0 0 0 0 0 0 ;
	261 	82 	 	0 	0.5 	0 0 0 0 0 0 ;
	261 	260 	 	1232.3000000000029 	0.5002034005008672 	0 0 0 0 0 0 ;
	261 	269 	 	942.09999999999854 	1.8601069381324784 	0 0 0 0 0 0 ;
	262 	13 	 	592.80000000000291 	1.0000217845703872 	0 0 0 0 0 0 ;
	262 	273 	 	37 	2.0000000006612311 	0 0 0 0 0 0 ;
	263 	16 	 	241.50000000002183 	1.0000006000462971 	0 0 0 0 0 0 ;
	263 	264 	 	249 	2.0000013562620311 	0 0 0 0 0 0 ;
	264 	143 	 	56.19999999999709 	0.50000007127159951 	0 0 0 0 0 0 ;
	264 	263 	 	241.50000000002183 	2.0000012000925942 	0 0 0 0 0 0 ;
	264 	265 	 	322.90000000002328 	0.50000095886707019 	0 0 0 0 0 0 ;
	265 	139 	 	262.20000000001164 	0.5000337677397787 	0 0 0 0 0 0 ;
	265 	264 	 	60.200000000004366 	0.50000000115843635 	0 0 0 0 0 0 ;
	265 	266 	 	188.10000000002037 	1.000000220836778 	0 0 0 0 0 0 ;
	266 	24 	 	340.30000000003201 	0.14906833489713095 	0 0 0 0 0 0 ;
	266 	39 	 	24.19999999999709 	1.4598484850883253 	0 0 0 0 0 0 ;
	266 	256 	 	86.4528155172884 	1.9200757769213079 	0 0 0 0 0 0 ;
	266 	265 	 	113.90000000000873 	1.0000000296900629 	0 0 0 0 0 0 ;
	266 	277 	 	76.700000000011642 	3.579924263856042 	0 0 0 0 0 0 ;
	267 	24 	 	306.80000000000291 	0.14906833085987911 	0 0 0 0 0 0 ;
	267 	39 	 	18.30000000000291 	1.4598484850288822 	0 0 0 0 0 0 ;
	267 	259 	 	1245.1000000000058 	1.92088980881737 	0 0 0 0 0 0 ;
	267 	268 	 	1412.2000000000044 	1.0007016185267923 	0 0 0 0 0 0 ;
	267 	281 	 	921.3843561878748 	1.6403600425910869 	0 0 0 0 0 0 ;
	268 	25 	 	4077.2999999999956 	0.14931350304086155 	0 0 0 0 0 0 ;
	268 	40 	 	13.30000000000291 	1.3200757580072866 	0 0 0 0 0 0 ;
	268 	267 	 	2330.8843561878748 	1.0052071384869339 	0 0 0 0 0 0 ;
	268 	287 	 	2534.7156438121456 	1.7326008457102438 	0 0 0 0 0 0 ;
	269 	25 	 	4303.3999999999942 	0.14937258050977933 	0 0 0 0 0 0 ;
	269 	40 	 	34.099999999998545 	1.320075758314871 	0 0 0 0 0 0 ;
	269 	261 	 	1232.3000000000029 	1.8606050732267723 	0 0 0 0 0 0 ;
	269 	270 	 	550.55304846098443 	1.0000162073834273 	0 0 0 0 0 0 ;
	269 	290 	 	2089.7469515390403 	2.5084106784537887 	0 0 0 0 0 0 ;
	270 	269 	 	3178.0999999999913 	1.0179964337923006 	0 0 0 0 0 0 ;
	270 	271 	 	550.55304846098443 	0.57993364105454892 	0 0 0 0 0 0 ;
	271 	192 	 	748.30000000000291 	0.50224013516674781 	0 0 0 0 0 0 ;
	271 	270 	 	3178.0999999999913 	0.59036081022570319 	0 0 0 0 0 0 ;
	271 	272 	 	550.55304846098443 	0.50000810369171367 	0 0 0 0 0 0 ;
	272 	186 	 	1811.9530484609786 	0.57701210653998103 	0 0 0 0 0 0 ;
	272 	271 	 	1262.1999999999971 	0.50022387156097703 	0 0 0 0 0 0 ;
	272 	273 	 	454.00000000001455 	2.2799413287729116 	0 0 0 0 0 0 ;
	273 	26 	 	302.30000000001019 	0.1490683304087857 	0 0 0 0 0 0 ;
	273 	41 	 	55.30000000000291 	1.0000000016497448 	0 0 0 0 0 0 ;
	273 	262 	 	592.80000000000291 	2.0000435691407743 	0 0 0 0 0 0 ;
	273 	272 	 	2783.1999999999971 	0.28288726070825904 	0 0 0 0 0 0 ;
	273 	292 	 	56.400000000001455 	2.0000000035699541 	0 0 0 0 0 0 ;
	274 	26 	 	378.80000000003201 	0.14906834126561611 	0 0 0 0 0 0 ;
	274 	41 	 	342.5 	1.0000024274960007 	0 0 0 0 0 0 ;
	274 	275 	 	501.60000000003492 	2.000022334504747 	0 0 0 0 0 0 ;
	274 	293 	 	615.00000000000728 	1.4201115947153029 	0 0 0 0 0 0 ;
	275 	12 	 	501.60000000003492 	1.0000111672523735 	0 0 0 0 0 0 ;
	275 	274 	 	488.20000000001164 	2.0000200418273115 	0 0 0 0 0 0 ;
	276 	17 	 	1184.0000000000291 	1.0003466754031849 	0 0 0 0 0 0 ;
	276 	296 	 	648.30000000002474 	2.0000623232800248 	0 0 0 0 0 0 ;
	277 	228 	 	69.900000000008731 	0.50000017056108337 	0 0 0 0 0 0 ;
	277 	266 	 	222.55281551729422 	3.579925791253292 	0 0 0 0 0 0 ;
	277 	299 	 	235.10000000000582 	0.72007614606540338 	0 0 0 0 0 0 ;
	278 	100 	 	516.34481274330756 	0.50050784422315187 	0 0 0 0 0 0 ;
	278 	279 	 	0 	0.5 	0 0 0 0 0 0 ;
	279 	104 	 	0 	0.5 	0 0 0 0 0 0 ;
	279 	278 	 	516.34481274330756 	0.50000626968176731 	0 0 0 0 0 0 ;
	279 	280 	 	287.80000000000291 	0.42007626640170448 	0 0 0 0 0 0 ;
	280 	279 	 	516.34481274330756 	0.42008102548264165 	0 0 0 0 0 0 ;
	280 	300 	 	287.80000000000291 	0.42007626640170448 	0 0 0 0 0 0 ;
	281 	267 	 	576.59999999999854 	1.6401834964935342 	0 0 0 0 0 0 ;